38
Au
Au    0.000000    4.078250    8.156500
Au    0.000000    8.156500    4.078250
Au    4.078250    0.000000    8.156500
Au    4.078250    4.078250    4.078250
Au    4.078250    4.078250    8.156500
Au    4.078250    8.156500    0.000000
Au    4.078250    8.156500    4.078250
Au    4.078250    8.156500    8.156500
Au    8.156500    0.000000    4.078250
Au    8.156500    4.078250    0.000000
Au    8.156500    4.078250    4.078250
Au    8.156500    4.078250    8.156500
Au    8.156500    8.156500    4.078250
Au    8.156500    8.156500    8.156500
Au    0.000000    6.117375    6.117375
Au    4.078250    2.039125    6.117375
Au    4.078250    6.117375    2.039125
Au    4.078250    6.117375    6.117375
Au    8.156500    2.039125    2.039125
Au    8.156500    2.039125    6.117375
Au    8.156500    6.117375    2.039125
Au    8.156500    6.117375    6.117375
Au    2.039125    4.078250    6.117375
Au    2.039125    8.156500    2.039125
Au    2.039125    8.156500    6.117375
Au    6.117375    0.000000    6.117375
Au    6.117375    4.078250    2.039125
Au    6.117375    4.078250    6.117375
Au    6.117375    8.156500    2.039125
Au    6.117375    8.156500    6.117375
Au    2.039125    2.039125    8.156500
Au    2.039125    6.117375    4.078250
Au    2.039125    6.117375    8.156500
Au    6.117375    2.039125    4.078250
Au    6.117375    2.039125    8.156500
Au    6.117375    6.117375    0.000000
Au    6.117375    6.117375    4.078250
Au    6.117375    6.117375    8.156500
